/*--------------------------------*- C++ -*----------------------------------*\
  =========                 |
  \\      /  F ield         | OpenFOAM: The Open Source CFD Toolbox
   \\    /   O peration     | Website:  https://openfoam.org
    \\  /    A nd           | Version:  dev
     \\/     M anipulation  |
\*---------------------------------------------------------------------------*/
FoamFile
{
    version         2;
    format          ascii;
    class           dictionary;
    location        "constant";
    object          chemistryProperties;
}


refmapping
{
    active  false;
    
    mixtureFractionProperties
    {
        oxidizerMassFractions
        {
            N2       0.77;
            O2       0.23;
        }

        fuelMassFractions
        {
            CH4       1.0;
        }

        #include "$FOAM_CASE/constant/thermo.compressibleGasGRI"
    }
    tolerance	1e-4;
}


chemistryType
{
    solver          ode;
    method          standard;
    //solver            ode_pyJac;
    //method            loadBalanced_pyJac;
}

chemistry       on;

initialChemicalTimeStep 1e-07;

odeCoeffs
{
    solver          seulex;
    absTol          1e-8;
    relTol          0.1;
}

#include "reactionsGRI"

// ************************************************************************* //
