/*--------------------------------*- C++ -*----------------------------------*\
| =========                 |                                                 |
| \\      /  F ield         | DLBFoam: Dynamic Load Balancing                 |
|  \\    /   O peration     | for fast reactive simulations                   |
|   \\  /    A nd           |                                                 |
|    \\/     M anipulation  | 2020, Aalto University, Finland                 |
\*---------------------------------------------------------------------------*/
FoamFile
{
    version     2.0;
    format      ascii;
    class       volScalarField;
    location    "0";
    object      Ydefault;
}
// * * * * * * * * * * * * * * * * * * * * * * * * * * * * * * * * * * * * * //

dimensions      [0 0 0 0 0 0 0];

internalField   uniform 0.0;

boundaryField
{
    upperBoundary
    {
        type            cyclic;
    }

    lowerBoundary
    {
        type            cyclic;
    }

    leftBoundary
    {
        type            cyclic;
    }

    rightBoundary
    {
        type            cyclic;
    }

    frontAndBack
    {
        type            empty;
    }

}


// ************************************************************************* //
