/*--------------------------------*- C++ -*----------------------------------*\
  =========                 |
  \\      /  F ield         | OpenFOAM: The Open Source CFD Toolbox
   \\    /   O peration     | Website:  https://openfoam.org
    \\  /    A nd           | Version:  8
     \\/     M anipulation  |
\*---------------------------------------------------------------------------*/
FoamFile
{
    version     2.0;
    format      ascii;
    class       dictionary;
    location    "system";
    object      controlDict;
}
// * * * * * * * * * * * * * * * * * * * * * * * * * * * * * * * * * * * * * //

application     chemFoam;

startFrom       startTime;

startTime       0;

stopAt          endTime;

TEST		0.07;
endTime         $TEST;//0.07;

deltaT          1e-07;

maxDeltaT       1e-4;

adjustTimeStep  on;

writeControl    adjustableRunTime;

writeInterval   0.01;

purgeWrite      0;

writeFormat     ascii;

writeCompression off;

timeFormat      general;

timePrecision   6;

runTimeModifiable yes;

DebugSwitches
{
    SolverPerformance   0;
}


MECHNAME	"foam_mech_files";
echo $MECHNAME;
//MECHLIB	"$FOAM_CASE/constant/foam_mech_files/libc_pyjac.so";
//MECHLIB "$FOAM_CASE/constant" + $MECHNAME;

libs
(
        "libchemistryModel_DLB.so"
        "libODE_DLB.so"
         "$FOAM_CASE/constant/foam_mech_files/libc_pyjac.so"
);

// ************************************************************************* //
