/*--------------------------------*- C++ -*----------------------------------*\
  =========                 |
  \\      /  F ield         | DLBFoam: Dynamic Load Balancing 
   \\    /   O peration     | for fast reactive simulations
    \\  /    A nd           | 
     \\/     M anipulation  | 2020, Aalto University, Finland
\*---------------------------------------------------------------------------*/
FoamFile
{
    version     2.0;
    format      ascii;
    class       dictionary;
    location    "constant";
    object      initialConditions;
}
// * * * * * * * * * * * * * * * * * * * * * * * * * * * * * * * * * * * * * //

constantProperty pressure;

fractionBasis   mole;

fractions
{
    CH4             0.5;
    N2              3.76;
    O2              1;
}

p               1.36789e+06;

T               1000;


// ************************************************************************* //
