"""
<><><><><><><><><><><><><><><><><><><><><><><><><><><><><><><><><><><><><!
  Reduced version of GRI-MECH 1.2. 19 species ( + N2, AR); 84 reactions. !
                                 PennState Dec, 1994                     !
<><><><><><><><><><><><><><><><><><><><><><><><><><><><><><><><><><><><><!
 GRI-MECH version 1.2 Thermodynamics released 11/16/94
 NASA Polynomial format for CHEMKIN-II
 CH2* symbol changed to CH2(S); only change from version 1.1
 see README file for disclaimer
"""

units(length='cm', time='s', quantity='mol', act_energy='cal/mol')

ideal_gas(name='gas',
          elements="O H C N Ar",
          species="""H2      H       O       O2      OH      H2O     HO2
                     CH2     CH2(S)  CH3     CH4     CO      CO2     HCO
                     CH2O    CH3O    C2H4    C2H5    C2H6    N2      AR""",
          reactions='all',
          transport='Mix',
          initial_state=state(temperature=300.0, pressure=OneAtm))

#-------------------------------------------------------------------------------
# Species data
#-------------------------------------------------------------------------------

species(name=u'H2',
        atoms='H:2',
        thermo=(NASA([200.00, 1000.00],
                     [ 2.34433112E+00,  7.98052075E-03, -1.94781510E-05,
                       2.01572094E-08, -7.37611761E-12, -9.17935173E+02,
                       6.83010238E-01]),
                NASA([1000.00, 3500.00],
                     [ 3.33727920E+00, -4.94024731E-05,  4.99456778E-07,
                      -1.79566394E-10,  2.00255376E-14, -9.50158922E+02,
                      -3.20502331E+00])),
        transport=gas_transport(geom='linear',
                                diam=2.92,
                                well_depth=38.0,
                                polar=0.79,
                                rot_relax=280.0),
        note=u'TPIS78')

species(name=u'H',
        atoms='H:1',
        thermo=(NASA([200.00, 1000.00],
                     [ 2.50000000E+00,  7.05332819E-13, -1.99591964E-15,
                       2.30081632E-18, -9.27732332E-22,  2.54736599E+04,
                      -4.46682853E-01]),
                NASA([1000.00, 3500.00],
                     [ 2.50000001E+00, -2.30842973E-11,  1.61561948E-14,
                      -4.73515235E-18,  4.98197357E-22,  2.54736599E+04,
                      -4.46682914E-01])),
        transport=gas_transport(geom='atom',
                                diam=2.05,
                                well_depth=145.0),
        note=u'L7/88')

species(name=u'O',
        atoms='O:1',
        thermo=(NASA([200.00, 1000.00],
                     [ 3.16826710E+00, -3.27931884E-03,  6.64306396E-06,
                      -6.12806624E-09,  2.11265971E-12,  2.91222592E+04,
                       2.05193346E+00]),
                NASA([1000.00, 3500.00],
                     [ 2.56942078E+00, -8.59741137E-05,  4.19484589E-08,
                      -1.00177799E-11,  1.22833691E-15,  2.92175791E+04,
                       4.78433864E+00])),
        transport=gas_transport(geom='atom',
                                diam=2.75,
                                well_depth=80.0),
        note=u'L1/90')

species(name=u'O2',
        atoms='O:2',
        thermo=(NASA([200.00, 1000.00],
                     [ 3.78245636E+00, -2.99673416E-03,  9.84730201E-06,
                      -9.68129509E-09,  3.24372837E-12, -1.06394356E+03,
                       3.65767573E+00]),
                NASA([1000.00, 3500.00],
                     [ 3.28253784E+00,  1.48308754E-03, -7.57966669E-07,
                       2.09470555E-10, -2.16717794E-14, -1.08845772E+03,
                       5.45323129E+00])),
        transport=gas_transport(geom='linear',
                                diam=3.458,
                                well_depth=107.4,
                                polar=1.6,
                                rot_relax=3.8),
        note=u'TPIS89')

species(name=u'OH',
        atoms='H:1 O:1',
        thermo=(NASA([200.00, 1000.00],
                     [ 3.99201543E+00, -2.40131752E-03,  4.61793841E-06,
                      -3.88113333E-09,  1.36411470E-12,  3.61508056E+03,
                      -1.03925458E-01]),
                NASA([1000.00, 3500.00],
                     [ 3.09288767E+00,  5.48429716E-04,  1.26505228E-07,
                      -8.79461556E-11,  1.17412376E-14,  3.85865700E+03,
                       4.47669610E+00])),
        transport=gas_transport(geom='linear',
                                diam=2.75,
                                well_depth=80.0),
        note=u'RUS78')

species(name=u'H2O',
        atoms='H:2 O:1',
        thermo=(NASA([200.00, 1000.00],
                     [ 4.19864056E+00, -2.03643410E-03,  6.52040211E-06,
                      -5.48797062E-09,  1.77197817E-12, -3.02937267E+04,
                      -8.49032208E-01]),
                NASA([1000.00, 3500.00],
                     [ 3.03399249E+00,  2.17691804E-03, -1.64072518E-07,
                      -9.70419870E-11,  1.68200992E-14, -3.00042971E+04,
                       4.96677010E+00])),
        transport=gas_transport(geom='nonlinear',
                                diam=2.605,
                                well_depth=572.4,
                                dipole=1.844,
                                rot_relax=4.0),
        note=u'L8/89')

species(name=u'HO2',
        atoms='H:1 O:2',
        thermo=(NASA([200.00, 1000.00],
                     [ 4.30179801E+00, -4.74912051E-03,  2.11582891E-05,
                      -2.42763894E-08,  9.29225124E-12,  2.94808040E+02,
                       3.71666245E+00]),
                NASA([1000.00, 3500.00],
                     [ 4.01721090E+00,  2.23982013E-03, -6.33658150E-07,
                       1.14246370E-10, -1.07908535E-14,  1.11856713E+02,
                       3.78510215E+00])),
        transport=gas_transport(geom='nonlinear',
                                diam=3.458,
                                well_depth=107.4,
                                rot_relax=1.0),
        note=u'L5/89')

species(name=u'CH2',
        atoms='C:1 H:2',
        thermo=(NASA([200.00, 1000.00],
                     [ 3.76267867E+00,  9.68872143E-04,  2.79489841E-06,
                      -3.85091153E-09,  1.68741719E-12,  4.60040401E+04,
                       1.56253185E+00]),
                NASA([1000.00, 3500.00],
                     [ 2.87410113E+00,  3.65639292E-03, -1.40894597E-06,
                       2.60179549E-10, -1.87727567E-14,  4.62636040E+04,
                       6.17119324E+00])),
        transport=gas_transport(geom='linear',
                                diam=3.8,
                                well_depth=144.0),
        note=u'LS/93')

species(name=u'CH2(S)',
        atoms='C:1 H:2',
        thermo=(NASA([200.00, 1000.00],
                     [ 4.19860411E+00, -2.36661419E-03,  8.23296220E-06,
                      -6.68815981E-09,  1.94314737E-12,  5.04968163E+04,
                      -7.69118967E-01]),
                NASA([1000.00, 3500.00],
                     [ 2.29203842E+00,  4.65588637E-03, -2.01191947E-06,
                       4.17906000E-10, -3.39716365E-14,  5.09259997E+04,
                       8.62650169E+00])),
        transport=gas_transport(geom='linear',
                                diam=3.8,
                                well_depth=144.0),
        note=u'LS/93')

species(name=u'CH3',
        atoms='C:1 H:3',
        thermo=(NASA([200.00, 1000.00],
                     [ 3.67359040E+00,  2.01095175E-03,  5.73021856E-06,
                      -6.87117425E-09,  2.54385734E-12,  1.64449988E+04,
                       1.60456433E+00]),
                NASA([1000.00, 3500.00],
                     [ 2.28571772E+00,  7.23990037E-03, -2.98714348E-06,
                       5.95684644E-10, -4.67154394E-14,  1.67755843E+04,
                       8.48007179E+00])),
        transport=gas_transport(geom='linear',
                                diam=3.8,
                                well_depth=144.0),
        note=u'L11/89')

species(name=u'CH4',
        atoms='C:1 H:4',
        thermo=(NASA([200.00, 1000.00],
                     [ 5.14987613E+00, -1.36709788E-02,  4.91800599E-05,
                      -4.84743026E-08,  1.66693956E-11, -1.02466476E+04,
                      -4.64130376E+00]),
                NASA([1000.00, 3500.00],
                     [ 7.48514950E-02,  1.33909467E-02, -5.73285809E-06,
                       1.22292535E-09, -1.01815230E-13, -9.46834459E+03,
                       1.84373180E+01])),
        transport=gas_transport(geom='nonlinear',
                                diam=3.746,
                                well_depth=141.4,
                                polar=2.6,
                                rot_relax=13.0),
        note=u'L8/88')

species(name=u'CO',
        atoms='C:1 O:1',
        thermo=(NASA([200.00, 1000.00],
                     [ 3.57953347E+00, -6.10353680E-04,  1.01681433E-06,
                       9.07005884E-10, -9.04424499E-13, -1.43440860E+04,
                       3.50840928E+00]),
                NASA([1000.00, 3500.00],
                     [ 2.71518561E+00,  2.06252743E-03, -9.98825771E-07,
                       2.30053008E-10, -2.03647716E-14, -1.41518724E+04,
                       7.81868772E+00])),
        transport=gas_transport(geom='linear',
                                diam=3.65,
                                well_depth=98.1,
                                polar=1.95,
                                rot_relax=1.8),
        note=u'TPIS79')

species(name=u'CO2',
        atoms='C:1 O:2',
        thermo=(NASA([200.00, 1000.00],
                     [ 2.35677352E+00,  8.98459677E-03, -7.12356269E-06,
                       2.45919022E-09, -1.43699548E-13, -4.83719697E+04,
                       9.90105222E+00]),
                NASA([1000.00, 3500.00],
                     [ 3.85746029E+00,  4.41437026E-03, -2.21481404E-06,
                       5.23490188E-10, -4.72084164E-14, -4.87591660E+04,
                       2.27163806E+00])),
        transport=gas_transport(geom='linear',
                                diam=3.763,
                                well_depth=244.0,
                                polar=2.65,
                                rot_relax=2.1),
        note=u'L7/88')

species(name=u'HCO',
        atoms='C:1 H:1 O:1',
        thermo=(NASA([200.00, 1000.00],
                     [ 4.22118584E+00, -3.24392532E-03,  1.37799446E-05,
                      -1.33144093E-08,  4.33768865E-12,  3.83956496E+03,
                       3.39437243E+00]),
                NASA([1000.00, 3500.00],
                     [ 2.77217438E+00,  4.95695526E-03, -2.48445613E-06,
                       5.89161778E-10, -5.33508711E-14,  4.01191815E+03,
                       9.79834492E+00])),
        transport=gas_transport(geom='nonlinear',
                                diam=3.59,
                                well_depth=498.0),
        note=u'L12/89')

species(name=u'CH2O',
        atoms='C:1 H:2 O:1',
        thermo=(NASA([200.00, 1000.00],
                     [ 4.79372315E+00, -9.90833369E-03,  3.73220008E-05,
                      -3.79285261E-08,  1.31772652E-11, -1.43089567E+04,
                       6.02812900E-01]),
                NASA([1000.00, 3500.00],
                     [ 1.76069008E+00,  9.20000082E-03, -4.42258813E-06,
                       1.00641212E-09, -8.83855640E-14, -1.39958323E+04,
                       1.36563230E+01])),
        transport=gas_transport(geom='nonlinear',
                                diam=3.59,
                                well_depth=498.0,
                                rot_relax=2.0),
        note=u'L8/88')

species(name=u'CH3O',
        atoms='C:1 H:3 O:1',
        thermo=(NASA([300.00, 1000.00],
                     [ 2.10620400E+00,  7.21659500E-03,  5.33847200E-06,
                      -7.37763600E-09,  2.07561000E-12,  9.78601100E+02,
                       1.31521770E+01]),
                NASA([1000.00, 3000.00],
                     [ 3.77079900E+00,  7.87149700E-03, -2.65638400E-06,
                       3.94443100E-10, -2.11261600E-14,  1.27832520E+02,
                       2.92957500E+00])),
        transport=gas_transport(geom='nonlinear',
                                diam=3.69,
                                well_depth=417.0,
                                dipole=1.7,
                                rot_relax=2.0),
        note=u'121686')

species(name=u'C2H4',
        atoms='C:2 H:4',
        thermo=(NASA([200.00, 1000.00],
                     [ 3.95920148E+00, -7.57052247E-03,  5.70990292E-05,
                      -6.91588753E-08,  2.69884373E-11,  5.08977593E+03,
                       4.09733096E+00]),
                NASA([1000.00, 3500.00],
                     [ 2.03611116E+00,  1.46454151E-02, -6.71077915E-06,
                       1.47222923E-09, -1.25706061E-13,  4.93988614E+03,
                       1.03053693E+01])),
        transport=gas_transport(geom='nonlinear',
                                diam=3.971,
                                well_depth=280.8,
                                rot_relax=1.5),
        note=u'L1/91')

species(name=u'C2H5',
        atoms='C:2 H:5',
        thermo=(NASA([200.00, 1000.00],
                     [ 4.30646568E+00, -4.18658892E-03,  4.97142807E-05,
                      -5.99126606E-08,  2.30509004E-11,  1.28416265E+04,
                       4.70720924E+00]),
                NASA([1000.00, 3500.00],
                     [ 1.95465642E+00,  1.73972722E-02, -7.98206668E-06,
                       1.75217689E-09, -1.49641576E-13,  1.28575200E+04,
                       1.34624343E+01])),
        transport=gas_transport(geom='nonlinear',
                                diam=4.302,
                                well_depth=252.3,
                                rot_relax=1.5),
        note=u'L12/92')

species(name=u'C2H6',
        atoms='C:2 H:6',
        thermo=(NASA([200.00, 1000.00],
                     [ 4.29142492E+00, -5.50154270E-03,  5.99438288E-05,
                      -7.08466285E-08,  2.68685771E-11, -1.15222055E+04,
                       2.66682316E+00]),
                NASA([1000.00, 3500.00],
                     [ 1.07188150E+00,  2.16852677E-02, -1.00256067E-05,
                       2.21412001E-09, -1.90002890E-13, -1.14263932E+04,
                       1.51156107E+01])),
        transport=gas_transport(geom='nonlinear',
                                diam=4.302,
                                well_depth=252.3,
                                rot_relax=1.5),
        note=u'L8/88')

species(name=u'N2',
        atoms='N:2',
        thermo=(NASA([300.00, 1000.00],
                     [ 3.29867700E+00,  1.40824040E-03, -3.96322200E-06,
                       5.64151500E-09, -2.44485400E-12, -1.02089990E+03,
                       3.95037200E+00]),
                NASA([1000.00, 5000.00],
                     [ 2.92664000E+00,  1.48797680E-03, -5.68476000E-07,
                       1.00970380E-10, -6.75335100E-15, -9.22797700E+02,
                       5.98052800E+00])),
        transport=gas_transport(geom='linear',
                                diam=3.621,
                                well_depth=97.53,
                                polar=1.76,
                                rot_relax=4.0),
        note=u'121286')

species(name=u'AR',
        atoms='Ar:1',
        thermo=(NASA([300.00, 1000.00],
                     [ 2.50000000E+00,  0.00000000E+00,  0.00000000E+00,
                       0.00000000E+00,  0.00000000E+00, -7.45375000E+02,
                       4.36600000E+00]),
                NASA([1000.00, 5000.00],
                     [ 2.50000000E+00,  0.00000000E+00,  0.00000000E+00,
                       0.00000000E+00,  0.00000000E+00, -7.45375000E+02,
                       4.36600000E+00])),
        transport=gas_transport(geom='atom',
                                diam=3.33,
                                well_depth=136.5),
        note=u'120186')

#-------------------------------------------------------------------------------
# Reaction data
#-------------------------------------------------------------------------------

# Reaction 1
three_body_reaction('O + H + M <=> OH + M', [5.000000e+17, -1.0, 0.0],
                    efficiencies='AR:0.7 C2H6:3.0 CH4:2.0 CO:1.5 CO2:2.0 H2:2.0 H2O:6.0')

# Reaction 2
reaction('O + H2 <=> H + OH', [5.000000e+04, 2.67, 6290.0])

# Reaction 3
reaction('O + HO2 <=> OH + O2', [2.000000e+13, 0.0, 0.0])

# Reaction 4
reaction('O + CH2 <=> H + HCO', [8.000000e+13, 0.0, 0.0])

# Reaction 5
reaction('O + CH2(S) <=> H + HCO', [1.500000e+13, 0.0, 0.0])

# Reaction 6
reaction('O + CH3 <=> H + CH2O', [8.430000e+13, 0.0, 0.0])

# Reaction 7
reaction('O + CH4 <=> OH + CH3', [1.020000e+09, 1.5, 8600.0])

# Reaction 8
three_body_reaction('O + CO + M <=> CO2 + M', [6.020000e+14, 0.0, 3000.0],
                    efficiencies='AR:0.5 C2H6:3.0 CH4:2.0 CO:1.5 CO2:3.5 H2:2.0 H2O:6.0 O2:6.0')

# Reaction 9
reaction('O + HCO <=> OH + CO', [3.000000e+13, 0.0, 0.0])

# Reaction 10
reaction('O + HCO <=> H + CO2', [3.000000e+13, 0.0, 0.0])

# Reaction 11
reaction('O + CH2O <=> OH + HCO', [3.900000e+13, 0.0, 3540.0])

# Reaction 12
reaction('O + C2H4 <=> CH3 + HCO', [1.920000e+07, 1.83, 220.0])

# Reaction 13
reaction('O + C2H5 <=> CH3 + CH2O', [1.320000e+14, 0.0, 0.0])

# Reaction 14
reaction('O + C2H6 <=> OH + C2H5', [8.980000e+07, 1.92, 5690.0])

# Reaction 15
reaction('O2 + CO <=> O + CO2', [2.500000e+12, 0.0, 47800.0])

# Reaction 16
reaction('O2 + CH2O <=> HO2 + HCO', [1.000000e+14, 0.0, 40000.0])

# Reaction 17
three_body_reaction('H + O2 + M <=> HO2 + M', [2.800000e+18, -0.86, 0.0],
                    efficiencies='AR:0.0 C2H6:1.5 CO:0.75 CO2:1.5 H2O:0.0 N2:0.0 O2:0.0')

# Reaction 18
reaction('H + 2 O2 <=> HO2 + O2', [3.000000e+20, -1.72, 0.0])

# Reaction 19
reaction('H + O2 + H2O <=> HO2 + H2O', [9.380000e+18, -0.76, 0.0])

# Reaction 20
reaction('H + O2 + N2 <=> HO2 + N2', [3.750000e+20, -1.72, 0.0])

# Reaction 21
reaction('H + O2 + AR <=> HO2 + AR', [7.000000e+17, -0.8, 0.0])

# Reaction 22
reaction('H + O2 <=> O + OH', [8.300000e+13, 0.0, 14413.0])

# Reaction 23
three_body_reaction('2 H + M <=> H2 + M', [1.000000e+18, -1.0, 0.0],
                    efficiencies='AR:0.63 C2H6:3.0 CH4:2.0 CO2:0.0 H2:0.0 H2O:0.0')

# Reaction 24
reaction('2 H + H2 <=> 2 H2', [9.000000e+16, -0.6, 0.0])

# Reaction 25
reaction('2 H + H2O <=> H2 + H2O', [6.000000e+19, -1.25, 0.0])

# Reaction 26
reaction('2 H + CO2 <=> H2 + CO2', [5.500000e+20, -2.0, 0.0])

# Reaction 27
three_body_reaction('H + OH + M <=> H2O + M', [2.200000e+22, -2.0, 0.0],
                    efficiencies='AR:0.38 C2H6:3.0 CH4:2.0 H2:0.73 H2O:3.65')

# Reaction 28
reaction('H + HO2 <=> O2 + H2', [2.800000e+13, 0.0, 1068.0])

# Reaction 29
reaction('H + HO2 <=> 2 OH', [1.340000e+14, 0.0, 635.0])

# Reaction 30
falloff_reaction('H + CH2 (+ M) <=> CH3 (+ M)',
                 kf=[2.500000e+16, -0.8, 0.0],
                 kf0=[3.200000e+27, -3.14, 1230.0],
                 efficiencies='AR:0.7 C2H6:3.0 CH4:2.0 CO:1.5 CO2:2.0 H2:2.0 H2O:6.0',
                 falloff=Troe(A=0.68, T3=78.0, T1=1995.0, T2=5590.0))

# Reaction 31
falloff_reaction('H + CH3 (+ M) <=> CH4 (+ M)',
                 kf=[1.270000e+16, -0.63, 383.0],
                 kf0=[2.477000e+33, -4.76, 2440.0],
                 efficiencies='AR:0.7 C2H6:3.0 CH4:2.0 CO:1.5 CO2:2.0 H2:2.0 H2O:6.0',
                 falloff=Troe(A=0.783, T3=74.0, T1=2941.0, T2=6964.0))

# Reaction 32
reaction('H + CH4 <=> CH3 + H2', [6.600000e+08, 1.62, 10840.0])

# Reaction 33
falloff_reaction('H + HCO (+ M) <=> CH2O (+ M)',
                 kf=[1.090000e+12, 0.48, -260.0],
                 kf0=[1.350000e+24, -2.57, 1425.0],
                 efficiencies='AR:0.7 C2H6:3.0 CH4:2.0 CO:1.5 CO2:2.0 H2:2.0 H2O:6.0',
                 falloff=Troe(A=0.7824, T3=271.0, T1=2755.0, T2=6570.0))

# Reaction 34
reaction('H + HCO <=> H2 + CO', [7.340000e+13, 0.0, 0.0])

# Reaction 35
falloff_reaction('H + CH2O (+ M) <=> CH3O (+ M)',
                 kf=[5.400000e+11, 0.454, 2600.0],
                 kf0=[2.200000e+30, -4.8, 5560.0],
                 efficiencies='C2H6:3.0 CH4:2.0 CO:1.5 CO2:2.0 H2:2.0 H2O:6.0',
                 falloff=Troe(A=0.758, T3=94.0, T1=1555.0, T2=4200.0))

# Reaction 36
reaction('H + CH2O <=> HCO + H2', [2.300000e+10, 1.05, 3275.0])

# Reaction 37
reaction('H + CH3O <=> OH + CH3', [3.200000e+13, 0.0, 0.0])

# Reaction 38
falloff_reaction('H + C2H4 (+ M) <=> C2H5 (+ M)',
                 kf=[1.080000e+12, 0.454, 1820.0],
                 kf0=[1.200000e+42, -7.62, 6970.0],
                 efficiencies='AR:0.7 C2H6:3.0 CH4:2.0 CO:1.5 CO2:2.0 H2:2.0 H2O:6.0',
                 falloff=Troe(A=0.9753, T3=210.0, T1=984.0, T2=4374.0))

# Reaction 39
falloff_reaction('H + C2H5 (+ M) <=> C2H6 (+ M)',
                 kf=[5.210000e+17, -0.99, 1580.0],
                 kf0=[1.990000e+41, -7.08, 6685.0],
                 efficiencies='AR:0.7 C2H6:3.0 CH4:2.0 CO:1.5 CO2:2.0 H2:2.0 H2O:6.0',
                 falloff=Troe(A=0.8422, T3=125.0, T1=2219.0, T2=6882.0))

# Reaction 40
reaction('H + C2H6 <=> C2H5 + H2', [1.150000e+08, 1.9, 7530.0])

# Reaction 41
falloff_reaction('H2 + CO (+ M) <=> CH2O (+ M)',
                 kf=[4.300000e+07, 1.5, 79600.0],
                 kf0=[5.070000e+27, -3.42, 84350.0],
                 efficiencies='AR:0.7 C2H6:3.0 CH4:2.0 CO:1.5 CO2:2.0 H2:2.0 H2O:6.0',
                 falloff=Troe(A=0.932, T3=197.0, T1=1540.0, T2=10300.0))

# Reaction 42
reaction('OH + H2 <=> H + H2O', [2.160000e+08, 1.51, 3430.0])

# Reaction 43
reaction('2 OH <=> O + H2O', [3.570000e+04, 2.4, -2110.0])

# Reaction 44
reaction('OH + HO2 <=> O2 + H2O', [2.900000e+13, 0.0, -500.0])

# Reaction 45
reaction('OH + CH2 <=> H + CH2O', [2.000000e+13, 0.0, 0.0])

# Reaction 46
reaction('OH + CH2(S) <=> H + CH2O', [3.000000e+13, 0.0, 0.0])

# Reaction 47
reaction('OH + CH3 <=> CH2 + H2O', [5.600000e+07, 1.6, 5420.0])

# Reaction 48
reaction('OH + CH3 <=> CH2(S) + H2O', [2.501000e+13, 0.0, 0.0])

# Reaction 49
reaction('OH + CH4 <=> CH3 + H2O', [1.000000e+08, 1.6, 3120.0])

# Reaction 50
reaction('OH + CO <=> H + CO2', [4.760000e+07, 1.228, 70.0])

# Reaction 51
reaction('OH + HCO <=> H2O + CO', [5.000000e+13, 0.0, 0.0])

# Reaction 52
reaction('OH + CH2O <=> HCO + H2O', [3.430000e+09, 1.18, -447.0])

# Reaction 53
reaction('OH + C2H6 <=> C2H5 + H2O', [3.540000e+06, 2.12, 870.0])

# Reaction 54
reaction('HO2 + CH2 <=> OH + CH2O', [2.000000e+13, 0.0, 0.0])

# Reaction 55
reaction('HO2 + CH3 <=> O2 + CH4', [1.000000e+12, 0.0, 0.0])

# Reaction 56
reaction('HO2 + CH3 <=> OH + CH3O', [2.000000e+13, 0.0, 0.0])

# Reaction 57
reaction('HO2 + CO <=> OH + CO2', [1.500000e+14, 0.0, 23600.0])

# Reaction 58
reaction('CH2 + O2 <=> OH + HCO', [1.320000e+13, 0.0, 1500.0])

# Reaction 59
reaction('CH2 + H2 <=> H + CH3', [5.000000e+05, 2.0, 7230.0])

# Reaction 60
reaction('CH2 + CH3 <=> H + C2H4', [4.000000e+13, 0.0, 0.0])

# Reaction 61
reaction('CH2 + CH4 <=> 2 CH3', [2.460000e+06, 2.0, 8270.0])

# Reaction 62
reaction('CH2(S) + N2 <=> CH2 + N2', [1.500000e+13, 0.0, 600.0])

# Reaction 63
reaction('CH2(S) + AR <=> CH2 + AR', [9.000000e+12, 0.0, 600.0])

# Reaction 64
reaction('CH2(S) + O2 <=> H + OH + CO', [2.800000e+13, 0.0, 0.0])

# Reaction 65
reaction('CH2(S) + O2 <=> CO + H2O', [1.200000e+13, 0.0, 0.0])

# Reaction 66
reaction('CH2(S) + H2 <=> CH3 + H', [7.000000e+13, 0.0, 0.0])

# Reaction 67
reaction('CH2(S) + H2O <=> CH2 + H2O', [3.000000e+13, 0.0, 0.0])

# Reaction 68
reaction('CH2(S) + CH3 <=> H + C2H4', [1.200000e+13, 0.0, -570.0])

# Reaction 69
reaction('CH2(S) + CH4 <=> 2 CH3', [1.600000e+13, 0.0, -570.0])

# Reaction 70
reaction('CH2(S) + CO <=> CH2 + CO', [9.000000e+12, 0.0, 0.0])

# Reaction 71
reaction('CH2(S) + CO2 <=> CH2 + CO2', [7.000000e+12, 0.0, 0.0])

# Reaction 72
reaction('CH2(S) + CO2 <=> CO + CH2O', [1.400000e+13, 0.0, 0.0])

# Reaction 73
reaction('CH3 + O2 <=> O + CH3O', [2.675000e+13, 0.0, 28800.0])

# Reaction 74
reaction('CH3 + O2 <=> OH + CH2O', [3.600000e+10, 0.0, 8940.0])

# Reaction 75
falloff_reaction('2 CH3 (+ M) <=> C2H6 (+ M)',
                 kf=[2.120000e+16, -0.97, 620.0],
                 kf0=[1.770000e+50, -9.67, 6220.0],
                 efficiencies='AR:0.7 C2H6:3.0 CH4:2.0 CO:1.5 CO2:2.0 H2:2.0 H2O:6.0',
                 falloff=Troe(A=0.5325, T3=151.0, T1=1038.0, T2=4970.0))

# Reaction 76
reaction('2 CH3 <=> H + C2H5', [4.990000e+12, 0.1, 10600.0])

# Reaction 77
reaction('CH3 + HCO <=> CH4 + CO', [2.648000e+13, 0.0, 0.0])

# Reaction 78
reaction('CH3 + CH2O <=> HCO + CH4', [3.320000e+03, 2.81, 5860.0])

# Reaction 79
reaction('CH3 + C2H6 <=> C2H5 + CH4', [6.140000e+06, 1.74, 10450.0])

# Reaction 80
reaction('HCO + H2O <=> H + CO + H2O', [2.244000e+18, -1.0, 17000.0])

# Reaction 81
three_body_reaction('HCO + M <=> H + CO + M', [1.870000e+17, -1.0, 17000.0],
                    efficiencies='C2H6:3.0 CH4:2.0 CO:1.5 CO2:2.0 H2:2.0 H2O:0.0')

# Reaction 82
reaction('HCO + O2 <=> HO2 + CO', [7.600000e+12, 0.0, 400.0])

# Reaction 83
reaction('CH3O + O2 <=> HO2 + CH2O', [4.280000e-13, 7.6, -3530.0])

# Reaction 84
reaction('C2H5 + O2 <=> HO2 + C2H4', [8.400000e+11, 0.0, 3875.0])
