/*--------------------------------*- C++ -*----------------------------------*\
| =========                 |                                                 |
| \\      /  F ield         | OpenFOAM: The Open Source CFD Toolbox           |
|  \\    /   O peration     | Version:  dev                                   |
|   \\  /    A nd           | Web:      www.OpenFOAM.org                      |
|    \\/     M anipulation  |                                                 |
\*---------------------------------------------------------------------------*/
FoamFile
{
    version     2.0;
    format      ascii;
    class       dictionary;
    note        "mesh decomposition control dictionary";
    object      decomposeParDict;
}
// * * * * * * * * * * * * * * * * * * * * * * * * * * * * * * * * * * * * * //

numberOfSubdomains  8;

method          scotch;

//method          hierarchical;

/*hierarchicalCoeffs
{
    n           (2 4 1);
    delta       0.001;
    order       xyz;
}*/

/*
scotchCoeffs
{
        processorWeights (1 2 1 2);
}
*/
scotchCoeffs
{
        processorWeights (1 3 1 3 1 3 1 3);
}

// ************************************************************************* //
