"""
 CRECK Modeling Group (Politecnico di Milano)
 Skeletal kinetic scheme for n-dodecane obtained from the POLIMI_TOT1407 mechanism http://creckmodeling.chem.polimi.it/

 Combustion and Flame 162 (2015) 3991400
 paper:
 "REDUCED KINETIC MECHANISMS OF DIESEL FUEL SURROGATE FOR ENGINE CFD SIMULATIONS"
 A. Frassoldati, G. DErrico, T. Lucchini, A. Stagni, A. Cuoci, T. Faravelli, A. Onorati, E. Ranzi

"""

units(length='cm', time='s', quantity='mol', act_energy='cal/mol')

ideal_gas(name='gas',
          elements="N O H C",
          species="""N2              O2              H2
                     H2O             H2O2            CO
                     CO2             CH2O            HCO3H
                     CH4             CH3OH           CH3OOH
                     C2H2            CH2CO           C2H4
                     C2H4O           CH3CHO          C2-OQOOH
                     C2H6            AC3H4           C2H3CHO
                     C3H6            C2H5CHO         C3H5OH
                     C4H4            C4H6            IC3H5CHO
                     NC4H8           C4H7OH          C3H7CHO
                     C5H8            CYC5H8          C5EN-OQOOH-35
                     NC5H10          NC7H14          NC7H14O
                     NC7-OQOOH       NC7H15OOH       NC10H20
                     NC10MOOH        NC10-OQOOH      NC12-OQOOH
                     NC12H26         O               H
                     OH              HO2             CH
                     HCO             HCO3            CH2S
                     CH2             CH3             CH2OH
                     CH3O            CH3OO           HCCO
                     C2H3            CH3CO           CH2CHO
                     C2H5            C2H5OO          C2-QOOH
                     C2-OOQOOH       CHCHCH3         CH2CHCH2
                     CH3COCH2        NC3H7           NC3-QOOH
                     NC3H7OO         CH2C3H5         SC4H7
                     NC4H9P          NC4H9-OO        NC4-QOOH
                     NC5H9-3         C5EN-OO         C5EN-QOOH
                     C5EN-OOQOOH-35  NC5H11          NC5-QOOH
                     NC5H12OO        NC7H13          NC7H15
                     NC7H15-OO       NC7-QOOH        NC7-OOQOOH
                     NC10H19         NC10H21         NC10H21-OO
                     NC10-QOOH       NC10-OOQOOH     NC12H25
                     NC12H25-OO      NC12-QOOH       NC12-OOQOOH""",
          reactions='all',
          transport='Mix',
          initial_state=state(temperature=300.0, pressure=OneAtm))

#-------------------------------------------------------------------------------
# Species data
#-------------------------------------------------------------------------------

species(name=u'N2',
        atoms='N:2',
        thermo=(NASA([300.00, 1050.00],
                     [ 3.85321336E+00, -2.44053349E-03,  5.35160392E-06,
                      -3.75608397E-09,  9.22684330E-13, -1.07969550E+03,
                       1.60217419E+00]),
                NASA([1050.00, 3500.00],
                     [ 2.71287897E+00,  1.90359754E-03, -8.54297556E-07,
                       1.84170938E-10, -1.54715988E-14, -8.40225273E+02,
                       7.15926558E+00])),
        transport=gas_transport(geom='linear',
                                diam=3.621,
                                well_depth=97.53,
                                polar=1.76,
                                rot_relax=4.0))

species(name=u'O2',
        atoms='O:2',
        thermo=(NASA([300.00, 760.00],
                     [ 3.46035080E+00, -8.85011121E-04,  5.15281056E-06,
                      -5.40712413E-09,  1.87809542E-12, -1.02942573E+03,
                       5.02236126E+00]),
                NASA([760.00, 3500.00],
                     [ 2.81750648E+00,  2.49838007E-03, -1.52493521E-06,
                       4.50547608E-10, -4.87702792E-14, -9.31713392E+02,
                       7.94729337E+00])),
        transport=gas_transport(geom='linear',
                                diam=3.458,
                                well_depth=107.4,
                                polar=1.6,
                                rot_relax=3.8))

species(name=u'H2',
        atoms='H:2',
        thermo=(NASA([300.00, 750.00],
                     [ 3.08866003E+00,  2.53968841E-03, -5.72992027E-06,
                       5.71701843E-09, -1.98865970E-12, -9.92148124E+02,
                      -2.43823459E+00]),
                NASA([750.00, 3500.00],
                     [ 3.73110902E+00, -8.86706214E-04,  1.12286897E-06,
                      -3.74349782E-10,  4.17963674E-14, -1.08851547E+03,
                      -5.35285855E+00])),
        transport=gas_transport(geom='linear',
                                diam=2.92,
                                well_depth=38.0,
                                polar=0.79,
                                rot_relax=280.0))

species(name=u'H2O',
        atoms='H:2 O:1',
        thermo=(NASA([300.00, 1590.00],
                     [ 4.03530937E+00, -6.87559833E-04,  2.86629214E-06,
                      -1.50552360E-09,  2.55006790E-13, -3.02783278E+04,
                      -1.99201641E-01]),
                NASA([1590.00, 3500.00],
                     [ 2.30940463E+00,  3.65433887E-03, -1.22983871E-06,
                       2.11931683E-10, -1.50333493E-14, -2.97294901E+04,
                       8.92765177E+00])),
        transport=gas_transport(geom='nonlinear',
                                diam=2.605,
                                well_depth=572.4,
                                dipole=1.844,
                                rot_relax=4.0))

species(name=u'H2O2',
        atoms='H:2 O:2',
        thermo=(NASA([300.00, 1180.00],
                     [ 2.91896355E+00,  9.92397296E-03, -8.56537418E-06,
                       4.23738723E-09, -8.61930485E-13, -1.76139998E+04,
                       8.76340177E+00]),
                NASA([1180.00, 3500.00],
                     [ 4.56163072E+00,  4.35560969E-03, -1.48694629E-06,
                       2.38275424E-10, -1.46610352E-14, -1.80016693E+04,
                       5.66597119E-01])),
        transport=gas_transport(geom='nonlinear',
                                diam=3.458,
                                well_depth=107.4,
                                rot_relax=3.8))

species(name=u'CO',
        atoms='C:1 O:1',
        thermo=(NASA([300.00, 1000.00],
                     [ 3.81890943E+00, -2.40697343E-03,  5.75226966E-06,
                      -4.28629830E-09,  1.11070419E-12, -1.43689533E+04,
                       2.49992060E+00]),
                NASA([1000.00, 3500.00],
                     [ 2.68595014E+00,  2.12486373E-03, -1.04548608E-06,
                       2.45538864E-10, -2.22550981E-14, -1.41423615E+04,
                       7.96579426E+00])),
        transport=gas_transport(geom='linear',
                                diam=3.65,
                                well_depth=98.1,
                                polar=1.95,
                                rot_relax=1.8))

species(name=u'CO2',
        atoms='C:1 O:2',
        thermo=(NASA([300.00, 1620.00],
                     [ 2.44892797E+00,  8.54596135E-03, -6.60570102E-06,
                       2.52769046E-09, -3.80099332E-13, -4.83922906E+04,
                       9.47557732E+00]),
                NASA([1620.00, 3500.00],
                     [ 5.07830985E+00,  2.05366041E-03, -5.94311265E-07,
                       5.38675131E-11,  1.66346855E-15, -4.92442103E+04,
                      -4.47815290E+00])),
        transport=gas_transport(geom='linear',
                                diam=3.763,
                                well_depth=244.0,
                                polar=2.65,
                                rot_relax=2.1))

species(name=u'CH2O',
        atoms='C:1 H:2 O:1',
        thermo=(NASA([300.00, 930.00],
                     [ 3.13463322E+00,  1.80037482E-03,  8.80336316E-06,
                      -8.92465077E-09,  2.63639286E-12, -1.50171301E+04,
                       7.57920580E+00]),
                NASA([930.00, 3500.00],
                     [ 1.06639253E+00,  1.06960337E-02, -5.54447373E-06,
                       1.36053696E-09, -1.28442554E-13, -1.46324373E+04,
                       1.74071779E+01])),
        transport=gas_transport(geom='nonlinear',
                                diam=3.59,
                                well_depth=498.0,
                                rot_relax=2.0))

species(name=u'HCO3H',
        atoms='C:1 H:2 O:3',
        thermo=(NASA([300.00, 1750.00],
                     [ 2.47434199E+00,  2.16898607E-02, -1.63512235E-05,
                       5.87745807E-09, -8.18701091E-13, -3.54892796E+04,
                       1.72835470E+01]),
                NASA([1750.00, 3500.00],
                     [ 1.00230668E+01,  4.43563253E-03, -1.56188514E-06,
                       2.43424395E-10, -1.38391379E-14, -3.81313332E+04,
                      -2.33590722E+01])),
        transport=gas_transport(geom='nonlinear',
                                diam=4.12,
                                well_depth=443.2,
                                rot_relax=1.0))

species(name=u'CH4',
        atoms='C:1 H:4',
        thermo=(NASA([300.00, 1070.00],
                     [ 2.85765313E+00,  2.53571100E-03,  9.67916346E-06,
                      -8.69880870E-09,  2.25599770E-12, -1.00357904E+04,
                       4.98969392E+00]),
                NASA([1070.00, 3500.00],
                     [-2.82321416E-01,  1.42739336E-02, -6.77628877E-06,
                       1.55380951E-09, -1.39473841E-13, -9.36383584E+03,
                       2.03507024E+01])),
        transport=gas_transport(geom='nonlinear',
                                diam=3.746,
                                well_depth=141.4,
                                polar=2.6,
                                rot_relax=13.0))

species(name=u'CH3OH',
        atoms='C:1 H:4 O:1',
        thermo=(NASA([300.00, 700.00],
                     [ 2.88895785E+00,  4.85657077E-03,  1.59348814E-05,
                      -2.08247943E-08,  7.94986176E-12, -2.53716460E+04,
                       1.03674509E+01]),
                NASA([700.00, 3500.00],
                     [ 9.34193000E-01,  1.60266556E-02, -8.00101466E-06,
                       1.97129714E-09, -1.91599484E-13, -2.50979789E+04,
                       1.91008457E+01])),
        transport=gas_transport(geom='nonlinear',
                                diam=3.626,
                                well_depth=481.8,
                                rot_relax=1.0))

species(name=u'CH3OOH',
        atoms='C:1 H:4 O:2',
        thermo=(NASA([300.00, 1800.00],
                     [ 5.93430876E+00,  1.04356674E-02, -3.01974623E-06,
                       1.41830001E-10,  3.83264515E-14, -1.81342471E+04,
                      -2.80822136E+00]),
                NASA([1800.00, 3500.00],
                     [ 5.50146514E+00,  1.13975421E-02, -3.82130848E-06,
                       4.38704910E-10, -2.90617476E-15, -1.79784234E+04,
                      -4.65581411E-01])),
        transport=gas_transport(geom='nonlinear',
                                diam=3.626,
                                well_depth=481.8,
                                rot_relax=1.0))

species(name=u'C2H2',
        atoms='C:2 H:2',
        thermo=(NASA([300.00, 970.00],
                     [ 1.83812159E+00,  1.64533925E-02, -1.93408005E-05,
                       1.24068047E-08, -3.14627391E-12,  2.61425043E+04,
                       9.54239252E+00]),
                NASA([970.00, 3500.00],
                     [ 4.61193612E+00,  5.01498204E-03, -1.65253694E-06,
                       2.49922532E-10, -1.30568636E-14,  2.56043843E+04,
                      -3.75517096E+00])),
        transport=gas_transport(geom='linear',
                                diam=4.1,
                                well_depth=209.0,
                                rot_relax=2.5))

species(name=u'CH2CO',
        atoms='C:2 H:2 O:1',
        thermo=(NASA([300.00, 1410.00],
                     [ 2.49197065E+00,  1.58706066E-02, -1.26271528E-05,
                       5.33991909E-09, -9.11597189E-13, -7.58486732E+03,
                       1.06694385E+01]),
                NASA([1410.00, 3500.00],
                     [ 6.03578795E+00,  5.81722422E-03, -1.93206512E-06,
                       2.83140054E-10, -1.50051612E-14, -8.58422380E+03,
                      -7.64505060E+00])),
        transport=gas_transport(geom='nonlinear',
                                diam=3.97,
                                well_depth=436.0,
                                rot_relax=2.0))

species(name=u'C2H4',
        atoms='C:2 H:4',
        thermo=(NASA([300.00, 1800.00],
                     [ 2.66161697E-01,  1.94272328E-02, -1.14541158E-05,
                       3.49691054E-09, -4.39228267E-13,  5.45399123E+03,
                       1.95264329E+01]),
                NASA([1800.00, 3500.00],
                     [ 4.49333672E+00,  1.00335105E-02, -3.62601388E-06,
                       5.97613541E-10, -3.65481279E-14,  3.93220822E+03,
                      -3.35192020E+00])),
        transport=gas_transport(geom='nonlinear',
                                diam=3.971,
                                well_depth=280.8,
                                rot_relax=1.5))

species(name=u'C2H4O',
        atoms='C:2 H:4 O:1',
        thermo=(NASA([300.00, 1440.00],
                     [-1.76683146E+00,  3.11247960E-02, -2.31168173E-05,
                       9.09246001E-09, -1.49102113E-12, -7.02731487E+03,
                       3.09356489E+01]),
                NASA([1440.00, 3500.00],
                     [ 4.77217531E+00,  1.29608883E-02, -4.19608017E-06,
                       3.32859470E-10,  2.97428516E-14, -8.91054882E+03,
                      -2.99568268E+00])),
        transport=gas_transport(geom='nonlinear',
                                diam=4.53,
                                well_depth=362.6,
                                rot_relax=1.5))

species(name=u'CH3CHO',
        atoms='C:2 H:4 O:1',
        thermo=(NASA([300.00, 1800.00],
                     [ 9.91751377E-01,  2.23500313E-02, -1.35975169E-05,
                       4.27666307E-09, -5.48877497E-13, -2.10792434E+04,
                       1.99667711E+01]),
                NASA([1800.00, 3500.00],
                     [ 6.27018126E+00,  1.06201871E-02, -3.82264672E-06,
                       6.56340789E-10, -4.60549581E-14, -2.29794782E+04,
                      -8.60119259E+00])),
        transport=gas_transport(geom='nonlinear',
                                diam=3.97,
                                well_depth=436.0,
                                rot_relax=2.0))

species(name=u'C2-OQOOH',
        atoms='C:2 H:4 O:3',
        thermo=(NASA([300.00, 1800.00],
                     [ 5.53941294E+00,  2.40528540E-02, -1.48734621E-05,
                       4.62251869E-09, -5.79298801E-13, -3.23435917E+04,
                       3.51299738E+00]),
                NASA([1800.00, 3500.00],
                     [ 1.06961666E+01,  1.25934013E-02, -5.32391821E-06,
                       1.08565058E-09, -8.80671200E-14, -3.42000230E+04,
                      -2.43964294E+01])),
        transport=gas_transport(geom='nonlinear',
                                diam=4.41,
                                well_depth=470.6,
                                rot_relax=1.5))

species(name=u'C2H6',
        atoms='C:2 H:6',
        thermo=(NASA([300.00, 1800.00],
                     [-2.74461309E-01,  2.56422430E-02, -1.44720586E-05,
                       4.30555164E-09, -5.30740425E-13, -1.10464360E+04,
                       2.20452775E+01]),
                NASA([1800.00, 3500.00],
                     [ 4.39373503E+00,  1.52684734E-02, -5.82725051E-06,
                       1.10377088E-09, -8.60486537E-14, -1.27269866E+04,
                      -3.21997495E+00])),
        transport=gas_transport(geom='nonlinear',
                                diam=4.302,
                                well_depth=252.3,
                                rot_relax=1.5))

species(name=u'AC3H4',
        atoms='C:3 H:4',
        thermo=(NASA([300.00, 1800.00],
                     [ 1.21562918E+00,  2.35625008E-02, -1.47340944E-05,
                       4.68570404E-09, -5.99570704E-13,  2.26674413E+04,
                       1.58066578E+01]),
                NASA([1800.00, 3500.00],
                     [ 6.64430238E+00,  1.14987825E-02, -4.68099585E-06,
                       9.62334222E-10, -8.24360065E-14,  2.07131189E+04,
                      -1.35744541E+01])),
        transport=gas_transport(geom='linear',
                                diam=4.76,
                                well_depth=252.0))

species(name=u'C2H3CHO',
        atoms='C:3 H:4 O:1',
        thermo=(NASA([300.00, 1340.00],
                     [ 3.40917666E-01,  3.51200360E-02, -2.88391725E-05,
                       1.22832633E-08, -2.12384107E-12, -1.16562372E+04,
                       2.26803642E+01]),
                NASA([1340.00, 3500.00],
                     [ 6.70517760E+00,  1.61222451E-02, -7.57298869E-06,
                       1.70307233E-09, -1.49924851E-13, -1.33618589E+04,
                      -9.88613663E+00])),
        transport=gas_transport(geom='nonlinear',
                                diam=4.12,
                                well_depth=443.2,
                                rot_relax=1.0))

species(name=u'C3H6',
        atoms='C:3 H:6',
        thermo=(NASA([300.00, 1800.00],
                     [-2.61886761E-01,  3.20704567E-02, -2.02723602E-05,
                       6.66956086E-09, -8.90307969E-13,  1.26157099E+03,
                       2.37162283E+01]),
                NASA([1800.00, 3500.00],
                     [ 9.21549195E+00,  1.10096151E-02, -2.72165887E-06,
                       1.69301120E-10,  1.25058839E-14, -2.15028535E+03,
                      -2.75773224E+01])),
        transport=gas_transport(geom='nonlinear',
                                diam=4.14,
                                well_depth=307.8,
                                rot_relax=1.0))

species(name=u'C2H5CHO',
        atoms='C:3 H:6 O:1',
        thermo=(NASA([300.00, 1140.00],
                     [ 4.65967589E+00,  1.41694770E-02,  1.40614860E-05,
                      -1.58387612E-08,  4.15675092E-12, -2.49373071E+04,
                       5.40040975E+00]),
                NASA([1140.00, 3500.00],
                     [-3.19796156E+00,  4.17401347E-02, -2.22156952E-05,
                       5.37596466E-09, -4.95601240E-13, -2.31457657E+04,
                       4.43385409E+01])),
        transport=gas_transport(geom='nonlinear',
                                diam=4.82,
                                well_depth=411.0,
                                rot_relax=1.0))

species(name=u'C3H5OH',
        atoms='C:3 H:6 O:1',
        thermo=(NASA([300.00, 820.00],
                     [ 4.24999286E+00,  1.79062989E-02,  3.49680492E-06,
                      -1.00737688E-08,  3.69024828E-12, -1.75177823E+04,
                       1.00962500E+01]),
                NASA([820.00, 3500.00],
                     [ 2.45863176E+00,  2.66446458E-02, -1.24879759E-05,
                       2.92198798E-09, -2.71872686E-13, -1.72239991E+04,
                       1.83830345E+01])),
        transport=gas_transport(geom='nonlinear',
                                diam=4.82,
                                well_depth=411.0,
                                rot_relax=1.0))

species(name=u'C4H4',
        atoms='C:4 H:4',
        thermo=(NASA([300.00, 1190.00],
                     [ 4.03184847E-01,  3.66937767E-02, -3.27936077E-05,
                       1.57416564E-08, -3.10035746E-12,  3.27321448E+04,
                       2.15965194E+01]),
                NASA([1190.00, 3500.00],
                     [ 6.36293592E+00,  1.66610000E-02, -7.54220850E-06,
                       1.59521425E-09, -1.28415834E-13,  3.13137240E+04,
                      -8.19255288E+00])),
        transport=gas_transport(geom='nonlinear',
                                diam=5.18,
                                well_depth=357.0,
                                rot_relax=1.0))

species(name=u'C4H6',
        atoms='C:4 H:6',
        thermo=(NASA([300.00, 1550.00],
                     [-1.04533857E+00,  4.24894928E-02, -3.12557510E-05,
                       1.20001840E-08, -1.85870818E-12,  1.19186275E+04,
                       2.79839806E+01]),
                NASA([1550.00, 3500.00],
                     [ 9.55395345E+00,  1.51364811E-02, -4.78509457E-06,
                       6.14955374E-10, -2.23809938E-14,  8.63284693E+03,
                      -2.77966685E+01])),
        transport=gas_transport(geom='nonlinear',
                                diam=5.18,
                                well_depth=357.0,
                                rot_relax=1.0))

species(name=u'IC3H5CHO',
        atoms='C:4 H:6 O:1',
        thermo=(NASA([300.00, 1370.00],
                     [ 6.92941977E-01,  4.62513206E-02, -3.65372847E-05,
                       1.50910620E-08, -2.54027204E-12, -1.57251765E+04,
                       2.13235423E+01]),
                NASA([1370.00, 3500.00],
                     [ 8.96605760E+00,  2.20962385E-02, -1.00901145E-05,
                       2.22139279E-09, -1.91792264E-13, -1.79920102E+04,
                      -2.11939239E+01])),
        transport=gas_transport(geom='nonlinear',
                                diam=5.18,
                                well_depth=357.0,
                                rot_relax=1.0))

species(name=u'NC4H8',
        atoms='C:4 H:8',
        thermo=(NASA([300.00, 1170.00],
                     [-1.05707773E+00,  4.63544964E-02, -3.23509995E-05,
                       1.30416212E-08, -2.37313546E-12, -1.55478186E+03,
                       3.05429525E+01]),
                NASA([1170.00, 3500.00],
                     [ 2.98709814E+00,  3.25282541E-02, -1.46250479E-05,
                       2.94136385E-09, -2.14960813E-13, -2.50111901E+03,
                       1.03971909E+01])),
        transport=gas_transport(geom='nonlinear',
                                diam=4.65,
                                well_depth=355.0,
                                rot_relax=1.0))

species(name=u'C4H7OH',
        atoms='C:4 H:8 O:1',
        thermo=(NASA([300.00, 1460.00],
                     [-2.55531336E-01,  4.99397889E-02, -3.58835384E-05,
                       1.42243393E-08, -2.32030381E-12, -2.07058111E+04,
                       2.92946643E+01]),
                NASA([1460.00, 3500.00],
                     [ 1.00981665E+01,  2.15734935E-02, -6.74008418E-06,
                       9.16825971E-10, -4.16200161E-14, -2.37290909E+04,
                      -2.45741592E+01])),
        transport=gas_transport(geom='nonlinear',
                                diam=5.339941638,
                                well_depth=503.0722524,
                                dipole=1.67,
                                polar=8.88,
                                rot_relax=1.0))

species(name=u'C3H7CHO',
        atoms='C:4 H:8 O:1',
        thermo=(NASA([300.00, 700.00],
                     [ 3.71554492E+00,  2.56822356E-02,  2.64869216E-05,
                      -4.64000121E-08,  1.87071344E-11, -2.77337666E+04,
                       1.17531393E+01]),
                NASA([700.00, 3500.00],
                     [-9.77279434E-01,  5.24983747E-02, -3.09762338E-05,
                       8.32680251E-09, -8.38156520E-13, -2.70767712E+04,
                       3.27194912E+01])),
        transport=gas_transport(geom='nonlinear',
                                diam=5.339941638,
                                well_depth=503.0722524,
                                dipole=1.67,
                                polar=8.88,
                                rot_relax=1.0))

species(name=u'C5H8',
        atoms='C:5 H:8',
        thermo=(NASA([300.00, 1430.00],
                     [ 1.19183502E+00,  4.68276543E-02, -3.12245763E-05,
                       1.14435811E-08, -1.82614328E-12,  6.90073958E+03,
                       1.62025638E+01]),
                NASA([1430.00, 3500.00],
                     [ 8.95829159E+00,  2.51033002E-02, -8.43679234E-06,
                       8.19905621E-10,  3.11426511E-14,  4.67953300E+03,
                      -2.40439628E+01])),
        transport=gas_transport(geom='nonlinear',
                                diam=5.2,
                                well_depth=408.0,
                                rot_relax=1.0))

species(name=u'CYC5H8',
        atoms='C:5 H:8',
        thermo=(NASA([300.00, 1460.00],
                     [-6.56863980E+00,  6.82031726E-02, -5.30140751E-05,
                       2.12327757E-08, -3.43229252E-12,  3.28126920E+03,
                       5.42801525E+01]),
                NASA([1460.00, 3500.00],
                     [ 8.43099915E+00,  2.71082714E-02, -1.07932862E-05,
                       1.95387666E-09, -1.31111174E-13, -1.09862538E+03,
                      -2.37608447E+01])),
        transport=gas_transport(geom='linear',
                                diam=5.2,
                                well_depth=408.0,
                                rot_relax=1.0))

species(name=u'C5EN-OQOOH-35',
        atoms='C:5 H:8 O:3',
        thermo=(NASA([300.00, 1580.00],
                     [ 1.44561329E+00,  6.66454559E-02, -4.92669442E-05,
                       1.82387405E-08, -2.69662788E-12, -3.02135384E+04,
                       2.62635800E+01]),
                NASA([1580.00, 3500.00],
                     [ 1.69833146E+01,  2.73095032E-02, -1.19226853E-05,
                       2.48166925E-09, -2.03420392E-13, -3.51234520E+04,
                      -5.58041780E+01])),
        transport=gas_transport(geom='nonlinear',
                                diam=5.2,
                                well_depth=508.0,
                                rot_relax=1.0))

species(name=u'NC5H10',
        atoms='C:5 H:10',
        thermo=(NASA([300.00, 1800.00],
                     [-6.89551964E-01,  5.46638348E-02, -3.33910611E-05,
                       1.03751453E-08, -1.30620882E-12, -5.97063504E+03,
                       3.03853541E+01]),
                NASA([1800.00, 3500.00],
                     [ 1.11929736E+01,  2.82582223E-02, -1.13863841E-05,
                       2.22526491E-09, -1.74280993E-13, -1.02483443E+04,
                      -3.39253533E+01])),
        transport=gas_transport(geom='nonlinear',
                                diam=5.2,
                                well_depth=408.0,
                                rot_relax=1.0))

species(name=u'NC7H14',
        atoms='C:7 H:14',
        thermo=(NASA([300.00, 1800.00],
                     [-1.22797309E+00,  7.92825302E-02, -4.98360912E-05,
                       1.58931983E-08, -2.04231877E-12, -1.17316124E+04,
                       3.62789089E+01]),
                NASA([1800.00, 3500.00],
                     [ 1.82668105E+01,  3.59607890E-02, -1.37346402E-05,
                       2.52229050E-09, -1.85248240E-13, -1.87497345E+04,
                      -6.92309265E+01])),
        transport=gas_transport(geom='nonlinear',
                                diam=6.31,
                                well_depth=459.98,
                                rot_relax=1.0))

species(name=u'NC7H14O',
        atoms='C:7 H:14 O:1',
        thermo=(NASA([300.00, 1490.00],
                     [-7.39181743E+00,  1.06723843E-01, -7.92822536E-05,
                       3.02981881E-08, -4.68978493E-12, -3.34882722E+04,
                       6.36941424E+01]),
                NASA([1490.00, 3500.00],
                     [ 1.37609323E+01,  4.99379374E-02, -2.21152348E-05,
                       4.72010363E-09, -3.98160014E-13, -3.97917916E+04,
                      -4.67908592E+01])),
        transport=gas_transport(geom='nonlinear',
                                diam=6.31,
                                well_depth=559.98,
                                rot_relax=1.0))

species(name=u'NC7-OQOOH',
        atoms='C:7 H:14 O:3',
        thermo=(NASA([300.00, 1670.00],
                     [ 2.24997334E+00,  9.16961348E-02, -6.19165660E-05,
                       2.11673864E-08, -2.91752820E-12, -5.26831470E+04,
                       2.75334100E+01]),
                NASA([1670.00, 3500.00],
                     [ 2.27584121E+01,  4.25741258E-02, -1.77950010E-05,
                       3.55398722E-09, -2.80791799E-13, -5.95329656E+04,
                      -8.19251639E+01])),
        transport=gas_transport(geom='nonlinear',
                                diam=6.31,
                                well_depth=559.98,
                                rot_relax=1.0))

species(name=u'NC7H15OOH',
        atoms='C:7 H:16 O:2',
        thermo=(NASA([300.00, 1790.00],
                     [ 1.16215154E+00,  9.40447688E-02, -6.14519510E-05,
                       2.02455383E-08, -2.67013255E-12, -3.90982069E+04,
                       2.91745387E+01]),
                NASA([1790.00, 3500.00],
                     [ 2.73219585E+01,  3.55870996E-02, -1.24650774E-05,
                       2.00089265E-09, -1.21997682E-13, -4.84634178E+04,
                      -1.12262056E+02])),
        transport=gas_transport(geom='nonlinear',
                                diam=6.31,
                                well_depth=559.98,
                                rot_relax=1.0))

species(name=u'NC10H20',
        atoms='C:10 H:20',
        thermo=(NASA([300.00, 1800.00],
                     [-2.31417710E+00,  1.16973130E-01, -7.49614029E-05,
                       2.42311952E-08, -3.14284562E-12, -2.02333700E+04,