units(length='cm', time='s', quantity='mol', act_energy='cal/mol')

ideal_gas(name='gas',
          elements="N H O Ar He C",
          species="""N2             H              O2
                     O              OH             H2
                     H2O            AR             HO2
                     H2O2           CO             CO2
                     HCO            C              CH
                     T-CH2          CH3            CH2O
                     HCCO           C2H            CH2CO
                     C2H2           S-CH2          CH3OH
                     CH2OH          CH3O           CH4
                     CH3O2          C2H3           C2H4
                     C2H5           HCCOH          CH2CHO
                     CH3CHO         H2C2           C2H5O
                     N-C3H7         C2H6           C3H8
                     C3H6           C3H3           P-C3H4
                     A-C3H4         S-C3H5         N-C4H3
                     C2H3CHO        A-C3H5         C2O
                     C4H4           C3H2           C3H2O
                     C4H2           I-C4H3         T-C3H5
                     C3H5O          C4H            C8H2
                     C6H2           C4H6           N-C4H5
                     I-C4H5         A1             N-C7H16
                     C5H11          P-C4H9         C7H15
                     P-C4H8         C5H10          C7H14
                     C7H15O         C3H7CHO        C4H7
                     C5H9           C4H7O          N-C3H7O
                     I-C8H18        Y-C7H15        I-C4H8
                     I-C3H7         T-C4H9         C-C8H17
                     Y-C7H14        D-C8H17O       CH3COCH3
                     I-C4H7         X-C7H13        I-C3H5CHO
                     T-C4H9O        I-C4H7O        C5H4CH2
                     A1-            A1C2H2         A1C2H3
                     A1C2H          A1C2H*         A1C2H3*
                     A2-            A2             A2*
                     A2C2H2A        A2C2H2B        A2C2HA
                     A2C2HB         A2C2HA*        A2C2HB*
                     A2R5           A2R5-          A2R5C2H2
                     A2R5C2H        A2R5C2H*       P2
                     P2-            A3-            A3
                     A3*            A3R5-          A3R5
                     A4             A4-            A4R5
                     FLTN           C5H6           C5H5
                     T-C5H5O        C5H4O          S-C5H5O
                     C9H8           C9H7           A1CH2
                     C9H6O          O-C6H4         A1CH3
                     A1OH           HOA1CH3        OA1CH3
                     A1CH2O         A1CH2OH        A1CHO
                     A1O            A1CH3*         A1C2H4
                     A1C2H5         C8H9O2         C8H8OOH
                     OC8H7OOH       A1CH3CH3       A1CH3CH2
                     A1CH3CHO       A2CH3          A1CHOCH2
                     A1CHOCHO       A2OH           A2CH2
                     A2CH2O         A2CHO          A2O
                     OC6H4O         C5H81-3        C7H13
                     C6H13          OCHO           HOCHO
                     HOCH2O         O2CHO          HO2CHO
                     CH3CO          CH3CO2         CH3OCO
                     C2H5O2         CH3CO3         CH3CO3H
                     C3H6O1-2       C2H5CO         CH3COCH2
                     C2H5CHO        CH3COCH2O      C3H6OOH1-2
                     I-C3H7O2       N-C3H7O2       CH3COCH2O2
                     CH3COCH2O2H    C6H12-1        C2H5COCH2
                     P-C4H9O2       C4H9CO         N-C4H9CHO
                     C5H10OOH1-3    C5H11O2-1      NC5KET13
                     C5H10OOH1-3O2  C6H11          C6H13O-1
                     N-C12H26       C5H11CO        N-C5H11CHO
                     C6H12OOH1-3    C6H13O2-1      NC6KET13
                     C6H12OOH1-3O2  C6H13CO        N-C6H13CHO
                     C7H14OOH1-3    C7H15O2-1      NC7KET13
                     C7H14OOH1-3O2  C8H15          C8H16-1
                     C8H17          C8H17O2-1      C7H15CO
                     N-C7H15CHO     C8OOH1-3       C8OOH1-3O2
                     C8KET1-3       C9H17          C9H18-1
                     C9H19          C9H19O2-1      C8H17CO
                     N-C8H17CHO     C9OOH1-3       C9OOH1-3O2
                     C9KET1-3       C10H19         C10H20-1
                     C10H21         C10H21O2-1     C9H19CO
                     C10OOH1-3      C10OOH1-3O2    C10KET1-3
                     C11H21         C11H22-1       C11H23-1
                     C11H23O2-1     C12H23         C12H24
                     C12H25         C12H25O        C12H25O2
                     C12O-R4        C12O-R5        C12OOH-T6
                     C12OOH-T7      C12OOH-T5      C12OOHO2-T6
                     C12OOHO2-T7    C12KET-T6      C12KET-T7
                     N-C9H19CHO     C4H8-2         C2H5O2H
                     CH3CHCO        CH3CHCHO       HE""",
          reactions='all',
          initial_state=state(temperature=300.0, pressure=OneAtm))

#-------------------------------------------------------------------------------
# Species data
#-------------------------------------------------------------------------------

species(name=u'N2',
        atoms='N:2',
        thermo=(NASA([300.00, 1000.00],
                     [ 3.29867700E+00,  1.40824000E-03, -3.96322200E-06,
                       5.64151500E-09, -2.44485500E-12, -1.02090000E+03,
                       3.95037200E+00]),
                NASA([1000.00, 5000.00],
                     [ 2.92664000E+00,  1.48797700E-03, -5.68476100E-07,
                       1.00970400E-10, -6.75335100E-15, -9.22797700E+02,
                       5.98052800E+00])),
        note=u'121286')

species(name=u'H',
        atoms='H:1',
        thermo=(NASA([300.00, 1000.00],
                     [ 2.50000000E+00,  0.00000000E+00,  0.00000000E+00,
                       0.00000000E+00,  0.00000000E+00,  2.54716300E+04,
                      -4.60117600E-01]),
                NASA([1000.00, 5000.00],
                     [ 2.50000000E+00,  0.00000000E+00,  0.00000000E+00,
                       0.00000000E+00,  0.00000000E+00,  2.54716300E+04,
                      -4.60117600E-01])),
        note=u'120186')

species(name=u'O2',
        atoms='O:2',
        thermo=(NASA([300.00, 1000.00],
                     [ 3.21293600E+00,  1.12748600E-03, -5.75615000E-07,
                       1.31387700E-09, -8.76855400E-13, -1.00524900E+03,
                       6.03473800E+00]),
                NASA([1000.00, 5000.00],
                     [ 3.69757800E+00,  6.13519700E-04, -1.25884200E-07,
                       1.77528100E-11, -1.13643500E-15, -1.23393000E+03,
                       3.18916600E+00])),
        note=u'121386')

species(name=u'O',
        atoms='O:1',
        thermo=(NASA([300.00, 1000.00],
                     [ 2.94642900E+00, -1.63816600E-03,  2.42103200E-06,
                      -1.60284300E-09,  3.89069600E-13,  2.91476400E+04,
                       2.96399500E+00]),
                NASA([1000.00, 5000.00],
                     [ 2.54206000E+00, -2.75506200E-05, -3.10280300E-09,
                       4.55106700E-12, -4.36805200E-16,  2.92308000E+04,
                       4.92030800E+00])),
        note=u'120186')

species(name=u'OH',
        atoms='H:1 O:1',
        thermo=(NASA([200.00, 1000.00],
                     [ 4.12530561E+00, -3.22544939E-03,  6.52764691E-06,
                      -5.79853643E-09,  2.06237379E-12,  3.34630913E+03,
                      -6.90432960E-01]),
                NASA([1000.00, 6000.00],
                     [ 2.86472886E+00,  1.05650448E-03, -2.59082758E-07,
                       3.05218674E-11, -1.33195876E-15,  3.68362875E+03,
                       5.70164073E+00])),
        note=u'S9/01')

species(name=u'H2',
        atoms='H:2',
        thermo=(NASA([300.00, 1000.00],
                     [ 3.29812400E+00,  8.24944200E-04, -8.14301500E-07,
                      -9.47543400E-11,  4.13487200E-13, -1.01252100E+03,
                      -3.29409400E+00]),
                NASA([1000.00, 5000.00],
                     [ 2.99142300E+00,  7.00064400E-04, -5.63382900E-08,
                      -9.23157800E-12,  1.58275200E-15, -8.35034000E+02,
                      -1.35511000E+00])),
        note=u'121286')

species(name=u'H2O',
        atoms='H:2 O:1',
        thermo=(NASA([300.00, 1000.00],
                     [ 3.38684200E+00,  3.47498200E-03, -6.35469600E-06,
                       6.96858100E-09, -2.50658800E-12, -3.02081100E+04,
                       2.59023300E+00]),
                NASA([1000.00, 5000.00],
                     [ 2.67214600E+00,  3.05629300E-03, -8.73026000E-07,
                       1.20099600E-10, -6.39161800E-15, -2.98992100E+04,
                       6.86281700E+00])),
        note=u'20387')

species(name=u'AR',
        atoms='Ar:1',
        thermo=(NASA([300.00, 1000.00],
                     [ 2.50000000E+00,  0.00000000E+00,  0.00000000E+00,
                       0.00000000E+00,  0.00000000E+00, -7.45375000E+02,
                       4.36600100E+00]),
                NASA([1000.00, 5000.00],
                     [ 2.50000000E+00,  0.00000000E+00,  0.00000000E+00,
                       0.00000000E+00,  0.00000000E+00, -7.45375000E+02,
                       4.36600100E+00])),
        note=u'120186')

species(name=u'HO2',
        atoms='H:1 O:2',
        thermo=(NASA([200.00, 1000.00],
                     [ 4.30179801E+00, -4.74912051E-03,  2.11582891E-05,
                      -2.42763894E-08,  9.29225124E-12,  2.94808040E+02,
                       3.71666245E+00]),
                NASA([1000.00, 3500.00],
                     [ 4.01721090E+00,  2.23982013E-03, -6.33658150E-07,
                       1.14246370E-10, -1.07908535E-14,  1.11856713E+02,
                       3.78510215E+00])),
        note=u'L5/89')

species(name=u'H2O2',
        atoms='H:2 O:2',
        thermo=(NASA([300.00, 1000.00],
                     [ 3.38875400E+00,  6.56922600E-03, -1.48501300E-07,
                      -4.62580600E-09,  2.47151500E-12, -1.76631500E+04,
                       6.78536300E+00]),
                NASA([1000.00, 5000.00],
                     [ 4.57316700E+00,  4.33613600E-03, -1.47468900E-06,
                       2.34890400E-10, -1.43165400E-14, -1.80069600E+04,
                       5.01137000E-01])),
        note=u'120186')

species(name=u'CO',
        atoms='C:1 O:1',
        thermo=(NASA([300.00, 1000.00],
                     [ 3.26245200E+00,  1.51194100E-03, -3.88175500E-06,
                       5.58194400E-09, -2.47495100E-12, -1.43105400E+04,
                       4.84889700E+00]),
                NASA([1000.00, 5000.00],
                     [ 3.02507800E+00,  1.44268900E-03, -5.63082800E-07,
                       1.01858100E-10, -6.91095200E-15, -1.42683500E+04,
                       6.10821800E+00])),
        note=u'121286')

species(name=u'CO2',
        atoms='C:1 O:2',
        thermo=(NASA([300.00, 1000.00],
                     [ 2.27572500E+00,  9.92207200E-03, -1.04091100E-05,
                       6.86668700E-09, -2.11728000E-12, -4.83731400E+04,
                       1.01884900E+01]),
                NASA([1000.00, 5000.00],
                     [ 4.45362300E+00,  3.14016900E-03, -1.27841100E-06,
                       2.39399700E-10, -1.66903300E-14, -4.89669600E+04,
                      -9.55395900E-01])),
        note=u'121286')

species(name=u'HCO',
        atoms='H:1 C:1 O:1',
        thermo=(NASA([200.00, 1000.00],
                     [ 4.22118584E+00, -3.24392532E-03,  1.37799446E-05,
                      -1.33144093E-08,  4.33768865E-12,  3.83956496E+03,
                       3.39437243E+00]),
                NASA([1000.00, 3500.00],
                     [ 2.77217438E+00,  4.95695526E-03, -2.48445613E-06,
                       5.89161778E-10, -5.33508711E-14,  4.01191815E+03,
                       9.79834492E+00])),
        note=u'L12/89')

species(name=u'C',
        atoms='C:1',
        thermo=(NASA([200.00, 1000.00],
                     [ 2.55423955E+00, -3.21537724E-04,  7.33792245E-07,
                      -7.32234889E-10,  2.66521446E-13,  8.54438832E+04,
                       4.53130848E+00]),
                NASA([1000.00, 3500.00],
                     [ 2.49266888E+00,  4.79889284E-05, -7.24335020E-08,
                       3.74291029E-11, -4.87277893E-15,  8.54512953E+04,
                       4.80150373E+00])),
        note=u'L11/88')

species(name=u'CH',
        atoms='H:1 C:1',
        thermo=(NASA([200.00, 1000.00],
                     [ 3.48981665E+00,  3.23835541E-04, -1.68899065E-06,
                       3.16217327E-09, -1.40609067E-12,  7.07972934E+04,
                       2.08401108E+00]),
                NASA([1000.00, 3500.00],
                     [ 2.87846473E+00,  9.70913681E-04,  1.44445655E-07,
                      -1.30687849E-10,  1.76079383E-14,  7.10124364E+04,
                       5.48497999E+00])),
        note=u'TPIS79')

species(name=u'T-CH2',
        atoms='H:2 C:1',
        thermo=(NASA([200.00, 1000.00],
                     [ 3.76267867E+00,  9.68872143E-04,  2.79489841E-06,
                      -3.85091153E-09,  1.68741719E-12,  4.60040401E+04,
                       1.56253185E+00]),
                NASA([1000.00, 3500.00],
                     [ 2.87410113E+00,  3.65639292E-03, -1.40894597E-06,
                       2.60179549E-10, -1.87727567E-14,  4.62636040E+04,
                       6.17119324E+00])),
        note=u'LS/93')

species(name=u'CH3',
        atoms='H:3 C:1',
        thermo=(NASA([200.00, 1000.00],
                     [ 3.65717970E+00,  2.12659790E-03,  5.45838830E-06,
                      -6.61810030E-09,  2.46570740E-12,  1.64227160E+04,
                       1.67353540E+00]),
                NASA([1000.00, 6000.00],
                     [ 2.97812060E+00,  5.79785200E-03, -1.97558000E-06,
                       3.07297900E-10, -1.79174160E-14,  1.65095130E+04,
                       4.72247990E+00])),
        note=u'METHYLIU0702')

species(name=u'CH2O',
        atoms='H:2 C:1 O:1',
        thermo=(NASA([200.00, 1000.00],
                     [ 4.79372315E+00, -9.90833369E-03,  3.73220008E-05,
                      -3.79285261E-08,  1.31772652E-11, -1.43089567E+04,
                       6.02812900E-01]),
                NASA([1000.00, 3500.00],
                     [ 1.76069008E+00,  9.20000082E-03, -4.42258813E-06,
                       1.00641212E-09, -8.83855640E-14, -1.39958323E+04,
                       1.36563230E+01])),
        note=u'L8/88')

species(name=u'HCCO',
        atoms='H:1 C:2 O:1',
        thermo=(NASA([300.00, 1000.00],
                     [ 2.25172140E+00,  1.76550210E-02, -2.37291010E-05,
                       1.72757590E-08, -5.06648110E-12,  2.00594490E+04,
                       1.24904170E+01]),
                NASA([1000.00, 4000.00],
                     [ 5.62820580E+00,  4.08534010E-03, -1.59345470E-06,
                       2.86260520E-10, -1.94078320E-14,  1.93272150E+04,
                      -3.93025950E+00])),
        note=u'SRIC91')

species(name=u'C2H',
        atoms='H:1 C:2',
        thermo=(NASA([200.00, 1000.00],
                     [ 2.88965733E+00,  1.34099611E-02, -2.84769501E-05,
                       2.94791045E-08, -1.09331511E-11,  6.68393932E+04,
                       6.22296438E+00]),
                NASA([1000.00, 3500.00],
                     [ 3.16780652E+00,  4.75221902E-03, -1.83787077E-06,
                       3.04190252E-10, -1.77232770E-14,  6.71210650E+04,
                       6.63589475E+00])),
        note=u'L1/91')

species(name=u'CH2CO',
        atoms='H:2 C:2 O:1',
        thermo=(NASA([200.00, 1000.00],
                     [ 2.13583630E+00,  1.81188721E-02, -1.73947474E-05,
                       9.34397568E-09, -2.01457615E-12, -7.04291804E+03,
                       1.22156480E+01]),
                NASA([1000.00, 3500.00],
                     [ 4.51129732E+00,  9.00359745E-03, -4.16939635E-06,
                       9.23345882E-10, -7.94838201E-14, -7.55105311E+03,
                       6.32247205E-01])),
        note=u'L5/90')

species(name=u'C2H2',
        atoms='H:2 C:2',
        thermo=(NASA([200.00, 1000.00],
                     [ 8.08681094E-01,  2.33615629E-02, -3.55171815E-05,
                       2.80152437E-08, -8.50072974E-12,  2.64289807E+04,
                       1.39397051E+01]),
                NASA([1000.00, 3500.00],
                     [ 4.14756964E+00,  5.96166664E-03, -2.37294852E-06,
                       4.67412171E-10, -3.61235213E-14,  2.59359992E+04,
                      -1.23028121E+00])),
        note=u'L1/91')

species(name=u'S-CH2',
        atoms='H:2 C:1',
        thermo=(NASA([200.00, 1000.00],
                     [ 4.19860411E+00, -2.36661419E-03,  8.23296220E-06,
                      -6.68815981E-09,  1.94314737E-12,  5.04968163E+04,
                      -7.69118967E-01]),
                NASA([1000.00, 3500.00],
                     [ 2.29203842E+00,  4.65588637E-03, -2.01191947E-06,
                       4.17906000E-10, -3.39716365E-14,  5.09259997E+04,
                       8.62650169E+00])),
        note=u'LS/93')

species(name=u'CH3OH',
        atoms='H:4 C:1 O:1',
        thermo=(NASA([200.00, 1000.00],
                     [ 5.71539582E+00, -1.52309129E-02,  6.52441155E-05,
                      -7.10806889E-08,  2.61352698E-11, -2.56427656E+04,
                      -1.50409823E+00]),
                NASA([1000.00, 3500.00],
                     [ 1.78970791E+00,  1.40938292E-02, -6.36500835E-06,
                       1.38171085E-09, -1.17060220E-13, -2.53748747E+04,
                       1.45023623E+01])),
        note=u'L8/88')

species(name=u'CH2OH',
        atoms='H:3 C:1 O:1',
        thermo=(NASA([200.00, 1000.00],
                     [ 3.86388918E+00,  5.59672304E-03,  5.93271791E-06,
                      -1.04532012E-08,  4.36967278E-12, -3.19391367E+03,
                       5.47302243E+00]),
                NASA([1000.00, 3500.00],
                     [ 3.69266569E+00,  8.64576797E-03, -3.75101120E-06,
                       7.87234636E-10, -6.48554201E-14, -3.24250627E+03,
                       5.81043215E+00])),
        note=u'GUNL93')

species(name=u'CH3O',
        atoms='H:3 C:1 O:1',
        thermo=(NASA([300.00, 1000.00],
                     [ 2.10620400E+00,  7.21659500E-03,  5.33847200E-06,
                      -7.37763600E-09,  2.07561000E-12,  9.78601100E+02,
                       1.31521770E+01]),
                NASA([1000.00, 3000.00],
                     [ 3.77079900E+00,  7.87149700E-03, -2.65638400E-06,
                       3.94443100E-10, -2.11261600E-14,  1.27832520E+02,
                       2.92957500E+00])),
        note=u'121686')

species(name=u'CH4',
        atoms='H:4 C:1',
        thermo=(NASA([200.00, 1000.00],
                     [ 5.14911468E+00, -1.36622009E-02,  4.91453921E-05,
                      -4.84246767E-08,  1.66603441E-11, -1.02465983E+04,
                      -4.63848842E+00]),
                NASA([1000.00, 6000.00],
                     [ 1.65326226E+00,  1.00263099E-02, -3.31661238E-06,
                       5.36483138E-10, -3.14696758E-14, -1.00095936E+04,
                       9.90506283E+00])),
        note=u'g8/99')

species(name=u'CH3O2',
        atoms='H:3 C:1 O:2',
        thermo=(NASA([200.00, 1000.00],
                     [ 4.76597792E+00, -3.51077148E-03,  4.54394152E-05,
                      -5.66763729E-08,  2.21591482E-11, -4.82401289E+02,
                       4.76095141E+00]),
                NASA([1000.00, 6000.00],
                     [ 5.92505819E+00,  9.00194542E-03, -3.24254309E-06,
                       5.24362718E-10, -3.14263003E-14, -1.53258958E+03,
                      -4.93669747E+00])),
        note=u'PEROXYMETHT04/02')

species(name=u'C2H3',
        atoms='H:3 C:2',
        thermo=(NASA([200.00, 1000.00],
                     [ 3.21246645E+00,  1.51479162E-03,  2.59209412E-05,
                      -3.57657847E-08,  1.47150873E-11,  3.48598468E+04,
                       8.51054025E+00]),
                NASA([1000.00, 3500.00],
                     [ 3.01672400E+00,  1.03302292E-02, -4.68082349E-06,
                       1.01763288E-09, -8.62607041E-14,  3.46128739E+04,
                       7.78732378E+00])),
        note=u'L2/92')

species(name=u'C2H4',
        atoms='H:4 C:2',
        thermo=(NASA([200.00, 1000.00],
                     [ 3.95920148E+00, -7.57052247E-03,  5.70990292E-05,
                      -6.91588753E-08,  2.69884373E-11,  5.08977593E+03,
                       4.09733096E+00]),
                NASA([1000.00, 3500.00],
                     [ 2.03611116E+00,  1.46454151E-02, -6.71077915E-06,
                       1.47222923E-09, -1.25706061E-13,  4.93988614E+03,
                       1.03053693E+01])),
        note=u'L1/91')

species(name=u'C2H5',
        atoms='H:5 C:2',
        thermo=(NASA([200.00, 1000.00],
                     [ 4.30646568E+00, -4.18658892E-03,  4.97142807E-05,
                      -5.99126606E-08,  2.30509004E-11,  1.28416265E+04,
                       4.70720924E+00]),
                NASA([1000.00, 3500.00],
                     [ 1.95465642E+00,  1.73972722E-02, -7.98206668E-06,
                       1.75217689E-09, -1.49641576E-13,  1.28575200E+04,
                       1.34624343E+01])),
        note=u'L12/92')

species(name=u'HCCOH',
        atoms='H:2 C:2 O:1',
        thermo=(NASA([300.00, 1000.00],
                     [ 1.24237330E+00,  3.10722010E-02, -5.08668640E-05,
                       4.31371310E-08, -1.40145940E-11,  8.03161430E+03,
                       1.38743190E+01]),
                NASA([1000.00, 5000.00],
                     [ 5.92382910E+00,  6.79236000E-03, -2.56585640E-06,
                       4.49878410E-10, -2.99401010E-14,  7.26462600E+03,
                      -7.60177420E+00])),
        note=u'SRI91S')

species(name=u'CH2CHO',
        atoms='H:3 C:2 O:1',
        thermo=(NASA([300.00, 1000.00],
                     [ 1.09685733E+00,  2.20228796E-02, -1.44583444E-05,
                       3.00779578E-09,  6.08992877E-13,  1.06943322E+03,
                       1.90094813E+01]),
                NASA([1000.00, 3000.00],
                     [ 2.42606357E+00,  1.72400021E-02, -9.77132119E-06,
                       2.66555672E-09, -2.82120078E-13,  8.33106990E+02,
                       1.26038737E+01])),
        note=u'G3B3')

species(name=u'CH3CHO',
        atoms='H:4 C:2 O:1',
        thermo=(NASA([300.00, 1000.00],
                     [ 1.40653856E+00,  2.16984438E-02, -1.47573265E-05,
                       7.30435478E-09, -2.09119467E-12, -2.17973223E+04,
                       1.77513265E+01]),
                NASA([1000.00, 3000.00],
                     [ 2.68543112E+00,  1.76802373E-02, -8.65402739E-06,
                       2.03680589E-09, -1.87630935E-13, -2.21653701E+04,
                       1.11635653E+01])),
        note=u'G3B3')

species(name=u'H2C2',
        atoms='H:2 C:2',
        thermo=(NASA([200.00, 1000.00],
                     [ 3.28154830E+00,  6.97647910E-03, -2.38552440E-06,
                      -1.21044320E-09,  9.81895450E-13,  4.86217940E+04,
                       5.92039100E+00]),
                NASA([1000.00, 6000.00],
                     [ 4.27803400E+00,  4.75628040E-03, -1.63010090E-06,
                       2.54628060E-10, -1.48863790E-14,  4.83166880E+04,
                       6.40237010E-01])),
        note=u'L12/89')

species(name=u'C2H5O',
        atoms='H:5 C:2 O:1',
        thermo=(NASA([300.00, 1000.00],
                     [ 4.94420708E-01,  2.71774434E-02, -1.65909010E-05,
                       5.15204200E-09, -6.48496915E-13, -3.35252925E+03,
                       2.28079378E+01]),
                NASA([1000.00, 5000.00],
                     [ 2.46262349E+00,  2.09503959E-02, -9.39291750E-06,
                       1.56440627E-09,  0.00000000E+00, -3.83932658E+03,
                       1.28738847E+01])),
        note=u'000000')

species(name=u'N-C3H7',
        atoms='H:7 C:3',
        thermo=(NASA([298.15, 1000.00],
                     [ 1.04754730E+00,  2.60077940E-02,  2.35622520E-06,
                      -1.95923170E-08,  9.36801160E-12,  1.06326370E+04,
                       2.11418760E+01]),
                NASA([1000.00, 5000.00],
                     [ 7.70404050E+00,  1.60415400E-02, -5.28159670E-06,
                       7.62544030E-10, -3.93534620E-14,  8.29795310E+03,
                      -1.54875140E+01])),
        note=u'N-L9/85')

species(name=u'C2H6',
        atoms='H:6 C:2',
        thermo=(NASA([200.00, 1000.00],
                     [ 4.29142492E+00, -5.50154270E-03,  5.99438288E-05,
                      -7.08466285E-08,  2.68685771E-11, -1.15222055E+04,
                       2.66682316E+00]),
                NASA([1000.00, 3500.00],
                     [ 1.07188150E+00,  2.16852677E-02, -1.00256067E-05,
                       2.21412001E-09, -1.90002890E-13, -1.14263932E+04,
                       1.51156107E+01])),
        note=u'L8/88')

species(name=u'C3H8',
        atoms='H:8 C:3',
        thermo=(NASA([300.00, 1000.00],
                     [ 9.33553810E-01,  2.64245790E-02,  6.10597270E-06,
                      -2.19774990E-08,  9.51492530E-12, -1.39585200E+04,
                       1.92016910E+01]),
                NASA([1000.00, 5000.00],
                     [ 7.53413680E+00,  1.88722390E-02, -6.27184910E-06,
                       9.14756490E-10, -4.78380690E-14, -1.64675160E+04,
                      -1.78923490E+01])),
        note=u'L4/85')

species(name=u'C3H6',
        atoms='H:6 C:3',
        thermo=(NASA([300.00, 1000.00],
                     [-2.29261670E-03,  3.10261065E-02, -1.67151548E-05,
                       1.89594170E-09,  1.24957915E-12,  1.13437406E+03,
                       2.35719601E+01]),
                NASA([1000.00, 3000.00],
                     [ 4.71697982E-01,  2.89513070E-02, -1.56601819E-05,
                       4.11443199E-09, -4.23075141E-13,  1.12603387E+03,
                       2.15237289E+01])),
        note=u'G3B3')

species(name=u'C3H3',
        atoms='H:3 C:3',
        thermo=(NASA([300.00, 1000.00],
                     [ 1.40299238E+00,  3.01773327E-02, -3.98449373E-05,
                       2.93534629E-08, -8.70554579E-12,  3.93108220E+04,
                       1.51527845E+01]),
                NASA([1000.00, 3000.00],
                     [ 6.14915291E+00,  9.34063166E-03, -3.75055354E-06,
                       6.90156316E-10, -4.60824994E-14,  3.83854848E+04,
                      -7.45345215E+00])),
        note=u'G3B3')

species(name=u'P-C3H4',
        atoms='H:4 C:3',
        thermo=(NASA([300.00, 1000.00],
                     [ 1.46175323E+00,  2.46026602E-02, -1.90219395E-05,
                       8.60363422E-09, -1.66729240E-12,  2.09209793E+04,
                       1.49262585E+01]),
                NASA([1000.00, 3000.00],
                     [ 2.81460543E+00,  1.85524496E-02, -9.55026768E-06,
                       2.39951370E-09, -2.37485257E-13,  2.07010771E+04,
                       8.60604972E+00])),
        note=u'G3B3')

species(name=u'A-C3H4',
        atoms='H:4 C:3',
        thermo=(NASA([300.00, 1000.00],
                     [ 3.68928265E-01,  2.89351397E-02, -2.44386408E-05,
                       1.12547166E-08, -2.03040262E-12,  2.17585256E+04,
                       1.95267211E+01]),
                NASA([1000.00, 3000.00],
                     [ 2.56128757E+00,  1.95080128E-02, -1.04061366E-05,
                       2.70165173E-09, -2.75074329E-13,  2.13894289E+04,
                       9.20550397E+00])),
        note=u'G3B3')

species(name=u'S-C3H5',
        atoms='H:5 C:3',
        thermo=(NASA([300.00, 1000.00],
                     [ 3.13106581E-01,  3.18769663E-02, -2.53420013E-05,
                       1.02999073E-08, -1.35301854E-12,  3.13767683E+04,
                       2.23728832E+01]),
                NASA([1000.00, 3000.00],
                     [ 2.02509360E+00,  2.35513249E-02, -1.28254556E-05,
                       3.39579222E-09, -3.51794724E-13,  3.11812042E+04,
                       1.46653302E+01])),
        note=u'G3B3')

species(name=u'N-C4H3',
        atoms='H:3 C:4',
        thermo=(NASA([300.00, 1000.00],
                     [-3.55175031E-02,  4.30508503E-02, -5.75729147E-05,
                       4.15883142E-08, -1.20750857E-11,  6.43506593E+04,
                       2.43816855E+01]),
                NASA([1000.00, 3000.00],
                     [ 7.25330164E+00,  1.19580846E-02, -5.26715675E-06,
                       1.09981875E-09, -8.84016751E-14,  6.28977574E+04,
                      -1.05283126E+01])),
        note=u'G3B3')

species(name=u'C2H3CHO',
        atoms='H:4 C:3 O:1',
        thermo=(NASA([300.00, 1000.00],
                     [ 2.92355162E-01,  3.54321417E-02, -2.94936324E-05,
                       1.28100124E-08, -2.26144108E-12, -1.16521584E+04,
                       2.28878280E+01]),
                NASA([1000.00, 5000.00],
                     [ 5.56154592E+00,  1.79295837E-02, -8.03464758E-06,
                       1.32295375E-09,  0.00000000E+00, -1.29035886E+04,
                      -3.47372739E+00])),
        note=u'000000')

species(name=u'A-C3H5',
        atoms='H:5 C:3',
        thermo=(NASA([300.00, 1000.00],
                     [-1.03516444E+00,  3.75043366E-02, -3.26381242E-05,
                       1.47662613E-08, -2.43741154E-12,  1.88792254E+04,
                       2.71451071E+01]),
                NASA([1000.00, 3000.00],