/*--------------------------------*- C++ -*----------------------------------*\
  =========                 |
  \\      /  F ield         | DLBFoam: Dynamic Load Balancing
   \\    /   O peration     | for fast reactive simulations
    \\  /    A nd           |
     \\/     M anipulation  | 2020, Aalto University, Finland
\*---------------------------------------------------------------------------*/
FoamFile
{
    version     2.0;
    format      ascii;
    class       dictionary;
    location    "constant";
    object      chemistryProperties;
}
// * * * * * * * * * * * * * * * * * * * * * * * * * * * * * * * * * * * * * //

chemistryType
{
    solver          ode_pyJac;
    method          loadBalanced_pyJac;
}

chemistry       on;

initialChemicalTimeStep 1e30; // - should not influence ODE stability if all good.

odeCoeffs
{
    solver          seulex_LAPACK;
    absTol          1e-12;
    relTol          1e-12;
}

loadbalancing
{
    log     false;
}

refmapping{}

reactions
{}

// ************************************************************************* //
