/*--------------------------------*- C++ -*----------------------------------*\
  =========                 |
  \\      /  F ield         | DLBFoam: Dynamic Load Balancing 
   \\    /   O peration     | for fast reactive simulations
    \\  /    A nd           | 
     \\/     M anipulation  | 2020, Aalto University, Finland
\*---------------------------------------------------------------------------*/
FoamFile
{
    version     2.0;
    format      ascii;
    class       dictionary;
    object      refineMeshDict;
}
// * * * * * * * * * * * * * * * * * * * * * * * * * * * * * * * * * * * * * //

set             c0;

coordinateSystem global;

globalCoeffs
{
    tan1            (1 0 0);
    tan2            (0 1 0);
}

directions // comment out as required
(
    tan1
    tan2
);

useHexTopology  yes;

geometricCut    no;

writeMesh       no;

// ************************************************************************* //
