/*--------------------------------*- C++ -*----------------------------------*\
  =========                 |
  \\      /  F ield         | DLBFoam: Dynamic Load Balancing 
   \\    /   O peration     | for fast reactive simulations
    \\  /    A nd           | 
     \\/     M anipulation  | 2020, Aalto University, Finland
\*---------------------------------------------------------------------------*/
FoamFile
{
    version     2.0;
    format      ascii;
    class       dictionary;
    object      topoSetDict;
}
// * * * * * * * * * * * * * * * * * * * * * * * * * * * * * * * * * * * * * //

actions
(
    {
        name    c0;
        type    cellSet;
        action  new;
        source  boxToCell;
        sourceInfo
        {
            box (0 0.003 0) (0.008 0.005 8e-5); // Edit box bounds as required
        }
    }
);

// ************************************************************************* //
